20
5463122 (cid) cis
C      -0.3216       0.5423       -0.325
C      -1.2633       1.1946       0.4708
C      -0.5812      -0.7427      -0.8013
C       0.9305       1.2017      -0.6604
C      -2.4647        0.562       0.7901
C      -1.7827      -1.3754       -0.482
C      -2.7245       -0.723       0.3137
C        2.168       0.7488      -0.3516
C       2.4081      -0.4806       0.3703
C       3.6315      -0.9277       0.6753
H      -1.0755       2.1963       0.8499
H       0.1301       -1.265      -1.4368
H       0.8397       2.1545      -1.1766
H      -3.1982       1.0699       1.4095
H      -1.9867      -2.3744      -0.8559
H      -3.6604      -1.2152       0.5615
H       3.0292       1.3407      -0.6501
H        1.571      -1.0709       0.7267
H       3.7543      -1.8486       1.2356
H       4.5288      -0.3951       0.3779
