18
2-pentanol after 1 dihedral angle change (b)
O -0.15403927904130543 0.5273833642397567 0.2180333219980654
C 1.7157171899198442 -0.9502171485938349 0.6628105260585232
C 1.0562 0.0123 -0.3302
C 0.9090297231576085 -1.084321834973681 1.95733073218112
C 1.9736322981264254 1.1789067500161434 -0.6708828424961196
C 1.1134223230473266 -2.446977154813327 2.600665135445109
H 2.7209585766482016 -0.5885860951955335 0.9140800738085129
H 1.8283021589377384 -1.9368016374696535 0.1970900937594029
H 0.7975854805493208 -0.5218964430951712 -1.251004132545984
H -0.15734060886658363 -0.9435499614467869 1.7463227830362125
H 1.2048628646982085 -0.3065935050186268 2.6705779313705325
H 2.1270681461940018 1.25629759536476 -1.7529887742717525
H 1.5645584200886384 2.1260216121481625 -0.30634789185932254
H 2.9621233102932525 1.0296713750304285 -0.22315687528149275
H 0.6646367188673632 -2.4659807458516605 3.59881544226692
H 2.178821368919462 -2.6767294643247617 2.7027785494948944
H 0.6468168828980043 -3.2369017841685053 2.0035696630446385
H -0.511055152632814 -0.1377318740038629 0.8311682548308192
