18
2-pentanol after 1 dihedral angle change (c)
O 1.3916491154322974 1.304462551769357 0.16813682460820778
C 0.9934568257855414 0.03882015095507413 -1.860831263787204
C 1.0562 0.0123 -0.3302
C -0.3380958451288558 0.5946643434069592 -2.3731944341051423
C -0.27355854208489316 -0.41514235609288286 0.27622673256546304
C -0.9077462830732999 1.6363306484689943 -1.4229761973573354
H 1.120605287123769 -0.9784901366386556 -2.25241356361099
H 1.8188873997522739 0.6466237305231294 -2.25090693109447
H 1.8396167754517712 -0.679278537655092 -0.0014069918693611072
H -1.0615250606197386 -0.22093829462026976 -2.4869013688860524
H -0.20373198631751466 1.0502630699681077 -3.360856483493082
H -0.42848176613864153 -1.4940768331126326 0.16494178773054335
H -0.32555856395083294 -0.16148313261837274 1.339338545157276
H -1.1041331582480214 0.07669624222710905 -0.24154234741913302
H -0.4192914468059955 1.5655071092960622 -0.44600660252538527
H -1.9824620095187755 1.4881167735726195 -1.277006492901328
H -0.7493290330343246 2.648256623530669 -1.809155373240197
H 0.7090142647263658 1.563283070471291 0.8106278048566098
