18
2-pentanol after 1 dihedral angle change (a)
O 1.1189463609405914 1.3464397129425252 0.16647281034736472
C 1.5311228275987314 -0.02979193008815173 -1.7862730295033553
C 1.0562 0.0123 -0.3302
C 3.0300986513919 0.2562921598092591 -1.911726898280535
C -0.37379909468345796 -0.4929559130056178 -0.1940486813235034
C 3.679212422192462 0.42704062264144327 -0.5471825475914414
H 0.9829819286413424 0.7173429472668752 -2.3742821110062473
H 1.3084775838851528 -1.0140126312615478 -2.215992189924984
H 1.7147734781411132 -0.6011981656373511 0.2943226454250656
H 3.1859146231746385 1.1681312682301785 -2.4997384485850693
H 3.5290759199976836 -0.562345182680612 -2.4427210196188347
H -0.610955713672674 -1.2200923923578595 -0.9785959574419225
H -0.5384442707634665 -0.9626335139235214 0.7803991865430056
H -1.0826826303895332 0.33435042829480044 -0.3075941367542238
H 2.9355363015088765 0.7488287365654244 0.18866521333622632
H 4.471743199817624 1.1813689566514844 -0.581418946737541
H 4.115444070107937 -0.5147591675207668 -0.19941874181607577
H 1.1300699077225518 1.3032784479945538 1.1379595225133525
