20
trans, pubchem cid = 5371758
C      -0.4512      -0.3019      -0.0963
C      -0.8112       1.0455      -0.1246
C      -1.4338      -1.2838       0.0319
C       0.9487       -0.683      -0.2003
C      -2.1535       1.4112      -0.0246
C      -2.7762       -0.918       0.1318
C       -3.136       0.4294       0.1036
C       2.0062       0.1233       0.0509
C       3.3811      -0.3101      -0.0605
C       4.4261       0.4874       0.1879
H      -0.0841       1.8433      -0.2437
H      -1.1726      -2.3389       0.0573
H       1.1347       -1.714      -0.4969
H      -2.4349       2.4599      -0.0513
H      -3.5415      -1.6822       0.2318
H      -4.1813       0.7141       0.1803
H       1.8639       1.1505       0.3742
H       3.5665       -1.337      -0.3635
H        5.438        0.109       0.0875
H       4.3023       1.5213       0.4927
