24
conformer 0
O          0.0          0.0          0.0
O       4.6919          0.0          0.0
N 3.5948750014016104 1.2564623099511773e-16 2.051958672208142
N 0.21857865669282045 -0.8223927682696525 -2.868024418573897
N 1.5503215029926123 1.1079803158746504 1.3746485351381013
N -1.4651983958288914 -1.747440016419445 -3.9989359606901633
C -0.3934212337818127 0.2550295034973764 -2.2944962655077976
C -0.3295326207641166 0.024455910881656773 -0.9473788602624509
C 1.0730796671098546 -0.4641647876800602 -0.3758732338346637
C 3.63118518260272 0.35513009819252817 -0.5265020223243394
C -0.15854003965577546 -1.5941472603394782 -3.9365045489138897
C 2.4088992483007963 -0.6604977428523162 1.520833889559137
C -0.9573199554404856 -1.5437639995659092 -2.4434192365034386
C 1.0109567688809644 -0.24001315949964142 1.2278297218170202
H 0.41586634215737217 -1.470208132681771 -3.028454461546582
H 2.311009413574511 -0.4140705566458106 0.4590417337416225
H 1.496274288855869 -0.11282369510496451 1.7690258129212322
H 2.461457269781745 -1.7277581832192677 1.7572745096009346
H -1.7644809844206575 -0.8366113236851349 -2.235873660086279
H -0.8985157142351741 -2.5624237885672696 -2.834402082019673
H -1.5793089009344468 -1.73853858494307 -3.320576264962121
H 0.6794609199714063 -0.6701116603202197 2.1754723874603643
H 1.1354483074318498 -0.7708203597177874 2.1770997903569516
H -0.06365437326224946 -0.21034136445602847 1.4344660394394242
