17
conformer 0
O -2.6243403452371687 -0.008490906317417434 -2.445686478942638
O -0.5613565450215559 3.4850950541635433 -2.7826160082561353
O -0.026121906718939665 5.970174479799413 0.6659357903286782
N 2.4628418053669616 0.9638325557093148 1.936424905127276
C -1.1525117901458337 -0.8545531223080827 -0.3517669620676237
C -0.17490078024448355 1.3932559671113471 1.2053344297349524
C -2.7720013657402442 -2.6735737056950457 1.1838769304640921
C -0.23756211428578505 3.8611679427600283 -0.26332549177312126
H -1.3241603741384105 1.6560995266045497 2.908689538387095
H 0.45423504908346607 -1.9059471019926602 -1.132688779361196
H -4.57978426343841 -1.8393511251074406 1.739012617535804
H -1.7691677358022924 -3.224831972870667 2.9104861648082894
H -3.134640557986616 -4.428827769599083 0.1486421704519575
H 3.4677039962813767 2.591904895666075 1.7099698113002855
H 3.258027899844077 -0.3248923664047299 0.7458528492906223
H -1.4644480019311594 0.6879614399798213 -3.689134156056947
H -0.39275194306450584 1.6970090398780546 -3.2412211703147777
