17
conformer 2
O -3.551642710069976 1.2851878023651322 -1.3206138388437165
O 1.2286465612150343 1.5197362335157698 -2.7059265391868443
O 4.3064827940607815 1.7956757317982632 0.2613366536767492
N -0.7404056492108844 3.2157818007897334 2.7427146981813872
C -2.3000512917855267 -0.4394445382028185 0.33035271462754634
C 0.0012658462625574221 0.8100538802875945 1.5856046110583017
C -1.6198932931208356 -2.783150447901275 -1.1974330744165815
C 2.09373814240135 1.4022659259476393 -0.29119556110089106
H 0.8037201765253178 -0.4303927817770301 3.037722023283411
H -3.672845577437787 -0.9808780727382189 1.786078174067492
H -3.2915060674343675 -3.8213912023438743 -1.8298737500085458
H -0.4720020340912016 -4.066736325370703 -0.04612849396047694
H -0.4639552757682367 -2.306938638501361 -2.8470460896266836
H 0.27595609649826347 4.650423701684225 1.9550210677298985
H -0.27946816150614207 3.1984752757838733 4.612967096902101
H -2.26790488784626 2.376928997463249 -2.053185438070155
H -0.6210736418904039 1.6204354885818606 -2.7726080936730826
