11
conformer 0
C -0.2698195622107239 -0.9723828176615346 0.40424537396099947
C -2.0020705831677654 0.6153706944187144 -1.2455836359394021
C 2.2065213114737703 0.37601428708212764 0.9464714415250296
H -1.2245091754398383 -1.4049736072938883 2.1897779689578614
H 0.1185716928347646 -2.774295339452094 -0.538462683127638
H -1.5292544979879465 2.624049249124332 -1.099248785111294
H -1.8516428160595797 0.05628858563510242 -3.2316063851041523
H -3.9704336993994622 0.37465560298027034 -0.6580004976759991
H 3.3442624380546473 0.5049174723563362 -0.775963304372978
H 3.3091615478148446 -0.6425310870193199 2.369827590561767
H 1.869213344087217 2.296031329547565 1.6385429163258054
