11
conformer 2
C 0.0008460418825531821 -0.8201504263493304 0.7333034949238472
C -2.3535968810915446 0.2217356255558896 -0.5373785895109365
C 2.347594420836803 0.6590365938124866 -0.007498457137406808
H -0.2373344994417376 -0.7507670001571035 2.78879721713821
H 0.24486876670482774 -2.808028925597624 0.20858931361620883
H -4.050435075195152 -0.7558305213110145 0.12968719586290886
H -2.573331108044041 2.2417238169537383 -0.14878987146331835
H -2.2323356670845285 -0.028494836057799 -2.5867950496585954
H 4.048357330550794 -0.32489791119741457 0.6384138442407866
H 2.334540032111435 2.544751102809769 0.8428883336114225
H 2.4708266387706157 0.8740668512560226 -2.061217431623123
